 .Sol file Watershed HRU:973 Subbasin:15 HRU:73 Luse:URLD Soil: TN104 Slope: 2-5 5/10/2017 12:00:00 AM ArcSWAT 2012.10_0.14
 Soil Name: MONONGAHELA
 Soil Hydrologic Group: C
 Maximum rooting depth(m) : 1524.00
 Porosity fraction from which anions are excluded: 0.500
 Crack volume potential of soil: 0.500
 Texture 1                : L-CL-SCL-SIL
 Depth                [mm]:      304.80      558.80     1320.80     1524.00
 Bulk Density Moist [g/cc]:        1.30        1.40        1.45        1.30
 Ave. AW Incl. Rock Frag  :        0.16        0.15        0.10        0.14
 Ksat. (est.)      [mm/hr]:       27.00        9.40       14.00        2.60
 Organic Carbon [weight %]:        1.74        0.15        0.15        0.15
 Clay           [weight %]:       18.50       27.50       26.50       22.50
 Silt           [weight %]:       38.54       37.82       17.66       52.72
 Sand           [weight %]:       42.96       34.68       55.84       24.78
 Rock Fragments   [vol. %]:        5.07        9.61       14.73       21.81
 Soil Albedo (Moist)      :        0.01        0.17        0.17        0.17
 Erosion K                :        0.43        0.43        0.43        0.37
 Salinity (EC, Form 5)    :        0.00        0.00        0.00        0.00
 Soil pH                  :        0.00        0.00        0.00        0.00
 Soil CACO3               :        0.00        0.00        0.00        0.00
                              
