 .Sol file Watershed HRU:699 Subbasin:12 HRU:19 Luse:RNGE Soil: VA047 Slope: 1-2 5/10/2017 12:00:00 AM ArcSWAT 2012.10_0.14
 Soil Name: WESTMORELAND
 Soil Hydrologic Group: B
 Maximum rooting depth(m) : 1270.00
 Porosity fraction from which anions are excluded: 0.500
 Crack volume potential of soil: 0.500
 Texture 1                : SIL-SICL-SH--SICL-WB
 Depth                [mm]:      177.80      914.40     1244.60     1270.00
 Bulk Density Moist [g/cc]:        1.30        1.35        1.35        1.70
 Ave. AW Incl. Rock Frag  :        0.19        0.14        0.12        0.05
 Ksat. (est.)      [mm/hr]:        5.80        2.30        1.80       89.00
 Organic Carbon [weight %]:        1.45        0.15        0.15        0.05
 Clay           [weight %]:       22.50       27.50       27.50       20.00
 Silt           [weight %]:       52.72       52.50       52.50       40.00
 Sand           [weight %]:       24.78       20.00       20.00       40.00
 Rock Fragments   [vol. %]:        5.17       18.36       32.20       90.00
 Soil Albedo (Moist)      :        0.01        0.17        0.17        0.21
 Erosion K                :        0.37        0.28        0.17        0.00
 Salinity (EC, Form 5)    :        0.00        0.00        0.00        0.00
 Soil pH                  :        0.00        0.00        0.00        0.00
 Soil CACO3               :        0.00        0.00        0.00        0.00
                              
