 .Sol file Watershed HRU:833 Subbasin:14 HRU:29 Luse:SOYB Soil: TN017 Slope: 0-1 5/10/2017 12:00:00 AM ArcSWAT 2012.10_0.14
 Soil Name: MEMPHIS
 Soil Hydrologic Group: B
 Maximum rooting depth(m) : 1955.80
 Porosity fraction from which anions are excluded: 0.500
 Crack volume potential of soil: 0.500
 Texture 1                : SIL-SICL-SIL
 Depth                [mm]:      228.60      584.20     1955.80
 Bulk Density Moist [g/cc]:        1.40        1.40        1.40
 Ave. AW Incl. Rock Frag  :        0.22        0.21        0.22
 Ksat. (est.)      [mm/hr]:        1.50        0.41        0.61
 Organic Carbon [weight %]:        0.87        0.29        0.10
 Clay           [weight %]:       15.00       27.50       18.50
 Silt           [weight %]:       71.01       65.34       69.86
 Sand           [weight %]:       13.99        7.16       11.64
 Rock Fragments   [vol. %]:        0.00        0.00        0.00
 Soil Albedo (Moist)      :        0.04        0.13        0.19
 Erosion K                :        0.49        0.49        0.49
 Salinity (EC, Form 5)    :        0.00        0.00        0.00
 Soil pH                  :        0.00        0.00        0.00
 Soil CACO3               :        0.00        0.00        0.00
                              
