 .Sol file Watershed HRU:3528 Subbasin:49 HRU:49 Luse:RNGB Soil: MS125 Slope: 0-1 5/10/2017 12:00:00 AM ArcSWAT 2012.10_0.14
 Soil Name: ARKABUTLA
 Soil Hydrologic Group: C
 Maximum rooting depth(m) : 1397.00
 Porosity fraction from which anions are excluded: 0.500
 Crack volume potential of soil: 0.500
 Texture 1                : SIL-SICL
 Depth                [mm]:      152.40     1397.00
 Bulk Density Moist [g/cc]:        1.45        1.50
 Ave. AW Incl. Rock Frag  :        0.24        0.22
 Ksat. (est.)      [mm/hr]:        1.00        0.34
 Organic Carbon [weight %]:        1.16        0.39
 Clay           [weight %]:       15.00       27.50
 Silt           [weight %]:       71.01       65.34
 Sand           [weight %]:       13.99        7.16
 Rock Fragments   [vol. %]:        0.00        0.00
 Soil Albedo (Moist)      :        0.02        0.11
 Erosion K                :        0.43        0.32
 Salinity (EC, Form 5)    :        0.00        0.00
 Soil pH                  :        0.00        0.00
 Soil CACO3               :        0.00        0.00
                              
