 .Sol file Watershed HRU:2928 Subbasin:41 HRU:77 Luse:WATR Soil: TN200 Slope: 0-1 5/10/2017 12:00:00 AM ArcSWAT 2012.10_0.14
 Soil Name: BAXTER
 Soil Hydrologic Group: B
 Maximum rooting depth(m) : 2514.60
 Porosity fraction from which anions are excluded: 0.500
 Crack volume potential of soil: 0.500
 Texture 1                : CR--SIL-CR--SICL-CR--SIC-CR--SIC
 Depth                [mm]:      228.60      406.40     1219.20     2514.60
 Bulk Density Moist [g/cc]:        1.30        1.42        1.42        1.50
 Ave. AW Incl. Rock Frag  :        0.17        0.15        0.10        0.09
 Ksat. (est.)      [mm/hr]:        3.50        1.00        0.14        0.11
 Organic Carbon [weight %]:        1.74        0.58        0.19        0.06
 Clay           [weight %]:       19.50       29.00       50.00       50.00
 Silt           [weight %]:       53.74       52.17       44.74       44.74
 Sand           [weight %]:       26.76       18.83        5.26        5.26
 Rock Fragments   [vol. %]:       21.53       23.13       24.99       34.54
 Soil Albedo (Moist)      :        0.01        0.08        0.16        0.20
 Erosion K                :        0.28        0.24        0.24        0.24
 Salinity (EC, Form 5)    :        0.00        0.00        0.00        0.00
 Soil pH                  :        0.00        0.00        0.00        0.00
 Soil CACO3               :        0.00        0.00        0.00        0.00
                              
