 .Sol file Watershed HRU:3272 Subbasin:46 HRU:5 Luse:RNGE Soil: TN144 Slope: 2-5 5/10/2017 12:00:00 AM ArcSWAT 2012.10_0.14
 Soil Name: LINDSIDE
 Soil Hydrologic Group: C
 Maximum rooting depth(m) : 1524.00
 Porosity fraction from which anions are excluded: 0.500
 Crack volume potential of soil: 0.500
 Texture 1                : SIL-SICL-SICL
 Depth                [mm]:      203.20     1117.60     1524.00
 Bulk Density Moist [g/cc]:        1.30        1.30        1.30
 Ave. AW Incl. Rock Frag  :        0.22        0.20        0.17
 Ksat. (est.)      [mm/hr]:        2.10        0.88        0.75
 Organic Carbon [weight %]:        1.74        0.15        0.15
 Clay           [weight %]:       21.00       27.50       27.50
 Silt           [weight %]:       67.71       65.34       65.34
 Sand           [weight %]:       11.29        7.16        7.16
 Rock Fragments   [vol. %]:        1.24        1.24       12.47
 Soil Albedo (Moist)      :        0.01        0.17        0.17
 Erosion K                :        0.32        0.37        0.32
 Salinity (EC, Form 5)    :        0.00        0.00        0.00
 Soil pH                  :        0.00        0.00        0.00
 Soil CACO3               :        0.00        0.00        0.00
                              
